L24/1726536/GD.dss
! GERACAO DISTRIBUIDA — gerada de UGBT_tab e UGMT_tab
! Unidades com potencia nula sao omitidas (gerariam NaN).
! 19 unidades descartadas por potencia nula.
! 28 unidades de BT realocadas para o secundario do transformador (rede secundaria nao modelada).
! 0 unidades descartadas por ponto de conexao ausente da rede.
! irradiance=1 — ver o docstring: 1,0 e meio-dia de ceu claro, nao a ponta de carga.
! 2 barras tiveram a GD limitada a capacidade do transformador (16 kW cortados).
! inversores em pf=1 — ver o docstring de _pv: 0,92 e capacidade exigida pelo PRODIST, nao despacho.
! 0 unidades de MT ligadas pelo PAC da carga (casadas por CEG_GD): o PAC da UGMT nao existe na SSDMT.
New PVSystem.GD_d3777333e2f7358378f42a4b3113fcb0937cafb08a9711289cea568d43b3f2c0 phases=3 bus1=node_109729468.1.2.3 conn=wye kv=13.8000 pf=1 pmpp=117.36 kva=117.36 irradiance=1 temperature=25 %cutin=20 %cutout=20 effcurve=MyEff P-TCurve=MyPvsT Daily=IRRAD_DIA TDaily=TEMP_DIA
New PVSystem.GD_05da162769b0cb664be6d190678ce6035aeaae839c10c708a5c5d50ab45e5b25 phases=3 bus1=node_2749836203.1.2.3 conn=wye kv=13.8000 pf=1 pmpp=21.30 kva=21.30 irradiance=1 temperature=25 %cutin=20 %cutout=20 effcurve=MyEff P-TCurve=MyPvsT Daily=IRRAD_DIA TDaily=TEMP_DIA
New PVSystem.GD_d357485d1474579632dcc3fbfa3dc02d5aaa1496ff454c9921816be49272f18a phases=3 bus1=node_115127942.1.2.3 conn=wye kv=13.8000 pf=1 pmpp=9.34 kva=9.34 irradiance=1 temperature=25 %cutin=20 %cutout=20 effcurve=MyEff P-TCurve=MyPvsT Daily=IRRAD_DIA TDaily=TEMP_DIA
New PVSystem.GD_943b93e5f47958cf650fccae2d6930cbe1d0a300314420c6ae5cc452060fbc37_1 phases=1 bus1=node_418156866.1.4 conn=wye kv=0.1270 pf=1 pmpp=0.48 kva=0.48 irradiance=1 temperature=25 %cutin=20 %cutout=20 effcurve=MyEff P-TCurve=MyPvsT Daily=IRRAD_DIA TDaily=TEMP_DIA
New PVSystem.GD_943b93e5f47958cf650fccae2d6930cbe1d0a300314420c6ae5cc452060fbc37_2 phases=1 bus1=node_418156866.2.4 conn=wye kv=0.1270 pf=1 pmpp=0.48 kva=0.48 irradiance=1 temperature=25 %cutin=20 %cutout=20 effcurve=MyEff P-TCurve=MyPvsT Daily=IRRAD_DIA TDaily=TEMP_DIA
New PVSystem.GD_943b93e5f47958cf650fccae2d6930cbe1d0a300314420c6ae5cc452060fbc37_3 phases=1 bus1=node_418156866.3.4 conn=wye kv=0.1270 pf=1 pmpp=0.48 kva=0.48 irradiance=1 temperature=25 %cutin=20 %cutout=20 effcurve=MyEff P-TCurve=MyPvsT Daily=IRRAD_DIA TDaily=TEMP_DIA
New PVSystem.GD_06fa7075584ee0bd6a911441144d2c49470bff98d7c141b00798cb112db28c01_1 phases=1 bus1=node_418165717.1.4 conn=wye kv=0.1270 pf=1 pmpp=6.55 kva=6.55 irradiance=1 temperature=25 %cutin=20 %cutout=20 effcurve=MyEff P-TCurve=MyPvsT Daily=IRRAD_DIA TDaily=TEMP_DIA
New PVSystem.GD_06fa7075584ee0bd6a911441144d2c49470bff98d7c141b00798cb112db28c01_2 phases=1 bus1=node_418165717.2.4 conn=wye kv=0.1270 pf=1 pmpp=6.55 kva=6.55 irradiance=1 temperature=25 %cutin=20 %cutout=20 effcurve=MyEff P-TCurve=MyPvsT Daily=IRRAD_DIA TDaily=TEMP_DIA
New PVSystem.GD_06fa7075584ee0bd6a911441144d2c49470bff98d7c141b00798cb112db28c01_3 phases=1 bus1=node_418165717.3.4 conn=wye kv=0.1270 pf=1 pmpp=6.55 kva=6.55 irradiance=1 temperature=25 %cutin=20 %cutout=20 effcurve=MyEff P-TCurve=MyPvsT Daily=IRRAD_DIA TDaily=TEMP_DIA
New PVSystem.GD_52c68f8527d513686703443584f4df76d7c2429181b2ffa8f6f04ac758822f6a_1 phases=1 bus1=node_423144149.1.4 conn=wye kv=0.1270 pf=1 pmpp=0.84 kva=0.84 irradiance=1 temperature=25 %cutin=20 %cutout=20 effcurve=MyEff P-TCurve=MyPvsT Daily=IRRAD_DIA TDaily=TEMP_DIA
New PVSystem.GD_52c68f8527d513686703443584f4df76d7c2429181b2ffa8f6f04ac758822f6a_2 phases=1 bus1=node_423144149.2.4 conn=wye kv=0.1270 pf=1 pmpp=0.84 kva=0.84 irradiance=1 temperature=25 %cutin=20 %cutout=20 effcurve=MyEff P-TCurve=MyPvsT Daily=IRRAD_DIA TDaily=TEMP_DIA
New PVSystem.GD_52c68f8527d513686703443584f4df76d7c2429181b2ffa8f6f04ac758822f6a_3 phases=1 bus1=node_423144149.3.4 conn=wye kv=0.1270 pf=1 pmpp=0.84 kva=0.84 irradiance=1 temperature=25 %cutin=20 %cutout=20 effcurve=MyEff P-TCurve=MyPvsT Daily=IRRAD_DIA TDaily=TEMP_DIA
New PVSystem.GD_63ae07632a5adda7bd2bdaa1f18e4e23b36de3aa9a4d306b1e48cd0ffe80d66d_1 phases=1 bus1=node_423373038.1.4 conn=wye kv=0.1200 pf=1 pmpp=1.37 kva=1.37 irradiance=1 temperature=25 %cutin=20 %cutout=20 effcurve=MyEff P-TCurve=MyPvsT Daily=IRRAD_DIA TDaily=TEMP_DIA
New PVSystem.GD_63ae07632a5adda7bd2bdaa1f18e4e23b36de3aa9a4d306b1e48cd0ffe80d66d_2 phases=1 bus1=node_423373038.2.4 conn=wye kv=0.1200 pf=1 pmpp=1.37 kva=1.37 irradiance=1 temperature=25 %cutin=20 %cutout=20 effcurve=MyEff P-TCurve=MyPvsT Daily=IRRAD_DIA TDaily=TEMP_DIA
New PVSystem.GD_ddc4bd50ea30234651acc94d26b0620a42110a552c1ccff22b49b8d0ee5d1f0e_1 phases=1 bus1=node_423302403.1.4 conn=wye kv=0.1200 pf=1 pmpp=3.10 kva=3.10 irradiance=1 temperature=25 %cutin=20 %cutout=20 effcurve=MyEff P-TCurve=MyPvsT Daily=IRRAD_DIA TDaily=TEMP_DIA
New PVSystem.GD_ddc4bd50ea30234651acc94d26b0620a42110a552c1ccff22b49b8d0ee5d1f0e_2 phases=1 bus1=node_423302403.2.4 conn=wye kv=0.1200 pf=1 pmpp=3.10 kva=3.10 irradiance=1 temperature=25 %cutin=20 %cutout=20 effcurve=MyEff P-TCurve=MyPvsT Daily=IRRAD_DIA TDaily=TEMP_DIA
New PVSystem.GD_92d01a80b286aa0eb741e00e62d54aa3277e6a5af4fbf7ca68cb0b37cc72f23d_1 phases=1 bus1=node_423415841.1.4 conn=wye kv=0.1200 pf=1 pmpp=5.00 kva=5.00 irradiance=1 temperature=25 %cutin=20 %cutout=20 effcurve=MyEff P-TCurve=MyPvsT Daily=IRRAD_DIA TDaily=TEMP_DIA
New PVSystem.GD_92d01a80b286aa0eb741e00e62d54aa3277e6a5af4fbf7ca68cb0b37cc72f23d_2 phases=1 bus1=node_423415841.2.4 conn=wye kv=0.1200 pf=1 pmpp=5.00 kva=5.00 irradiance=1 temperature=25 %cutin=20 %cutout=20 effcurve=MyEff P-TCurve=MyPvsT Daily=IRRAD_DIA TDaily=TEMP_DIA
New PVSystem.GD_871122d9bb3590685b2fe170b86fbf40b29e92340be1aef4ace3c704933fb885_1 phases=1 bus1=node_423175576.1.4 conn=wye kv=0.1270 pf=1 pmpp=1.99 kva=1.99 irradiance=1 temperature=25 %cutin=20 %cutout=20 effcurve=MyEff P-TCurve=MyPvsT Daily=IRRAD_DIA TDaily=TEMP_DIA
New PVSystem.GD_871122d9bb3590685b2fe170b86fbf40b29e92340be1aef4ace3c704933fb885_2 phases=1 bus1=node_423175576.2.4 conn=wye kv=0.1270 pf=1 pmpp=1.99 kva=1.99 irradiance=1 temperature=25 %cutin=20 %cutout=20 effcurve=MyEff P-TCurve=MyPvsT Daily=IRRAD_DIA TDaily=TEMP_DIA
New PVSystem.GD_871122d9bb3590685b2fe170b86fbf40b29e92340be1aef4ace3c704933fb885_3 phases=1 bus1=node_423175576.3.4 conn=wye kv=0.1270 pf=1 pmpp=1.99 kva=1.99 irradiance=1 temperature=25 %cutin=20 %cutout=20 effcurve=MyEff P-TCurve=MyPvsT Daily=IRRAD_DIA TDaily=TEMP_DIA
New PVSystem.GD_0f2d99887b1763e2025700209f47ad2b31bf6ca72810770611007e2d170d137b_1 phases=1 bus1=node_423144146.1.4 conn=wye kv=0.1270 pf=1 pmpp=3.07 kva=3.07 irradiance=1 temperature=25 %cutin=20 %cutout=20 effcurve=MyEff P-TCurve=MyPvsT Daily=IRRAD_DIA TDaily=TEMP_DIA
New PVSystem.GD_0f2d99887b1763e2025700209f47ad2b31bf6ca72810770611007e2d170d137b_2 phases=1 bus1=node_423144146.2.4 conn=wye kv=0.1270 pf=1 pmpp=3.07 kva=3.07 irradiance=1 temperature=25 %cutin=20 %cutout=20 effcurve=MyEff P-TCurve=MyPvsT Daily=IRRAD_DIA TDaily=TEMP_DIA
New PVSystem.GD_0f2d99887b1763e2025700209f47ad2b31bf6ca72810770611007e2d170d137b_3 phases=1 bus1=node_423144146.3.4 conn=wye kv=0.1270 pf=1 pmpp=3.07 kva=3.07 irradiance=1 temperature=25 %cutin=20 %cutout=20 effcurve=MyEff P-TCurve=MyPvsT Daily=IRRAD_DIA TDaily=TEMP_DIA
New PVSystem.GD_13b9b1f38c83b944f84ef1d949ad29122242f7cc79f317b3e98a8b6a583baef9_1 phases=1 bus1=node_423161165.1.4 conn=wye kv=0.1270 pf=1 pmpp=1.65 kva=1.65 irradiance=1 temperature=25 %cutin=20 %cutout=20 effcurve=MyEff P-TCurve=MyPvsT Daily=IRRAD_DIA TDaily=TEMP_DIA
New PVSystem.GD_13b9b1f38c83b944f84ef1d949ad29122242f7cc79f317b3e98a8b6a583baef9_2 phases=1 bus1=node_423161165.2.4 conn=wye kv=0.1270 pf=1 pmpp=1.65 kva=1.65 irradiance=1 temperature=25 %cutin=20 %cutout=20 effcurve=MyEff P-TCurve=MyPvsT Daily=IRRAD_DIA TDaily=TEMP_DIA
New PVSystem.GD_13b9b1f38c83b944f84ef1d949ad29122242f7cc79f317b3e98a8b6a583baef9_3 phases=1 bus1=node_423161165.3.4 conn=wye kv=0.1270 pf=1 pmpp=1.65 kva=1.65 irradiance=1 temperature=25 %cutin=20 %cutout=20 effcurve=MyEff P-TCurve=MyPvsT Daily=IRRAD_DIA TDaily=TEMP_DIA
New PVSystem.GD_d5c7c14817fcbb09b2880228d656d51b5e1bd57105b381f900dba02800463f8c_1 phases=1 bus1=node_419349990.1.4 conn=wye kv=0.1200 pf=1 pmpp=2.38 kva=2.38 irradiance=1 temperature=25 %cutin=20 %cutout=20 effcurve=MyEff P-TCurve=MyPvsT Daily=IRRAD_DIA TDaily=TEMP_DIA
New PVSystem.GD_d5c7c14817fcbb09b2880228d656d51b5e1bd57105b381f900dba02800463f8c_2 phases=1 bus1=node_419349990.2.4 conn=wye kv=0.1200 pf=1 pmpp=2.38 kva=2.38 irradiance=1 temperature=25 %cutin=20 %cutout=20 effcurve=MyEff P-TCurve=MyPvsT Daily=IRRAD_DIA TDaily=TEMP_DIA
New PVSystem.GD_c0c4dc2ccbf40406bb670653c61dc82e483889a2b443825189daa5df78444c51_1 phases=1 bus1=node_418165714.1.4 conn=wye kv=0.1270 pf=1 pmpp=17.68 kva=17.68 irradiance=1 temperature=25 %cutin=20 %cutout=20 effcurve=MyEff P-TCurve=MyPvsT Daily=IRRAD_DIA TDaily=TEMP_DIA
New PVSystem.GD_c0c4dc2ccbf40406bb670653c61dc82e483889a2b443825189daa5df78444c51_2 phases=1 bus1=node_418165714.2.4 conn=wye kv=0.1270 pf=1 pmpp=17.68 kva=17.68 irradiance=1 temperature=25 %cutin=20 %cutout=20 effcurve=MyEff P-TCurve=MyPvsT Daily=IRRAD_DIA TDaily=TEMP_DIA
New PVSystem.GD_c0c4dc2ccbf40406bb670653c61dc82e483889a2b443825189daa5df78444c51_3 phases=1 bus1=node_418165714.3.4 conn=wye kv=0.1270 pf=1 pmpp=17.68 kva=17.68 irradiance=1 temperature=25 %cutin=20 %cutout=20 effcurve=MyEff P-TCurve=MyPvsT Daily=IRRAD_DIA TDaily=TEMP_DIA
New PVSystem.GD_17a38b46fb5099e8c77c02f5d8d6887b118cadccc9100d90aa7bf4ade4fc95d1_1 phases=1 bus1=node_419481099.1.4 conn=wye kv=0.1270 pf=1 pmpp=11.16 kva=11.16 irradiance=1 temperature=25 %cutin=20 %cutout=20 effcurve=MyEff P-TCurve=MyPvsT Daily=IRRAD_DIA TDaily=TEMP_DIA
New PVSystem.GD_17a38b46fb5099e8c77c02f5d8d6887b118cadccc9100d90aa7bf4ade4fc95d1_2 phases=1 bus1=node_419481099.2.4 conn=wye kv=0.1270 pf=1 pmpp=11.16 kva=11.16 irradiance=1 temperature=25 %cutin=20 %cutout=20 effcurve=MyEff P-TCurve=MyPvsT Daily=IRRAD_DIA TDaily=TEMP_DIA
New PVSystem.GD_17a38b46fb5099e8c77c02f5d8d6887b118cadccc9100d90aa7bf4ade4fc95d1_3 phases=1 bus1=node_419481099.3.4 conn=wye kv=0.1270 pf=1 pmpp=11.16 kva=11.16 irradiance=1 temperature=25 %cutin=20 %cutout=20 effcurve=MyEff P-TCurve=MyPvsT Daily=IRRAD_DIA TDaily=TEMP_DIA
New PVSystem.GD_eda1e916da39ddf890255cb15fe37c4ff57780b16b42d66e4f8cfa1f431bf445_1 phases=1 bus1=node_418163083.1.4 conn=wye kv=0.1270 pf=1 pmpp=0.55 kva=0.55 irradiance=1 temperature=25 %cutin=20 %cutout=20 effcurve=MyEff P-TCurve=MyPvsT Daily=IRRAD_DIA TDaily=TEMP_DIA
New PVSystem.GD_eda1e916da39ddf890255cb15fe37c4ff57780b16b42d66e4f8cfa1f431bf445_2 phases=1 bus1=node_418163083.2.4 conn=wye kv=0.1270 pf=1 pmpp=0.55 kva=0.55 irradiance=1 temperature=25 %cutin=20 %cutout=20 effcurve=MyEff P-TCurve=MyPvsT Daily=IRRAD_DIA TDaily=TEMP_DIA
New PVSystem.GD_eda1e916da39ddf890255cb15fe37c4ff57780b16b42d66e4f8cfa1f431bf445_3 phases=1 bus1=node_418163083.3.4 conn=wye kv=0.1270 pf=1 pmpp=0.55 kva=0.55 irradiance=1 temperature=25 %cutin=20 %cutout=20 effcurve=MyEff P-TCurve=MyPvsT Daily=IRRAD_DIA TDaily=TEMP_DIA
New PVSystem.GD_591a429f6c8f5988961a537f249474c09202ac6d2230db62f8def6ab4ee72206_1 phases=1 bus1=node_418163083.1.4 conn=wye kv=0.1270 pf=1 pmpp=0.35 kva=0.35 irradiance=1 temperature=25 %cutin=20 %cutout=20 effcurve=MyEff P-TCurve=MyPvsT Daily=IRRAD_DIA TDaily=TEMP_DIA
New PVSystem.GD_591a429f6c8f5988961a537f249474c09202ac6d2230db62f8def6ab4ee72206_2 phases=1 bus1=node_418163083.2.4 conn=wye kv=0.1270 pf=1 pmpp=0.35 kva=0.35 irradiance=1 temperature=25 %cutin=20 %cutout=20 effcurve=MyEff P-TCurve=MyPvsT Daily=IRRAD_DIA TDaily=TEMP_DIA
New PVSystem.GD_591a429f6c8f5988961a537f249474c09202ac6d2230db62f8def6ab4ee72206_3 phases=1 bus1=node_418163083.3.4 conn=wye kv=0.1270 pf=1 pmpp=0.35 kva=0.35 irradiance=1 temperature=25 %cutin=20 %cutout=20 effcurve=MyEff P-TCurve=MyPvsT Daily=IRRAD_DIA TDaily=TEMP_DIA
New PVSystem.GD_fb453fbf00da34326bc7011098fc3e963f4f975b50fa67550747af3f70268030_1 phases=1 bus1=node_418163083.1.4 conn=wye kv=0.1270 pf=1 pmpp=0.61 kva=0.61 irradiance=1 temperature=25 %cutin=20 %cutout=20 effcurve=MyEff P-TCurve=MyPvsT Daily=IRRAD_DIA TDaily=TEMP_DIA
New PVSystem.GD_fb453fbf00da34326bc7011098fc3e963f4f975b50fa67550747af3f70268030_2 phases=1 bus1=node_418163083.2.4 conn=wye kv=0.1270 pf=1 pmpp=0.61 kva=0.61 irradiance=1 temperature=25 %cutin=20 %cutout=20 effcurve=MyEff P-TCurve=MyPvsT Daily=IRRAD_DIA TDaily=TEMP_DIA
New PVSystem.GD_fb453fbf00da34326bc7011098fc3e963f4f975b50fa67550747af3f70268030_3 phases=1 bus1=node_418163083.3.4 conn=wye kv=0.1270 pf=1 pmpp=0.61 kva=0.61 irradiance=1 temperature=25 %cutin=20 %cutout=20 effcurve=MyEff P-TCurve=MyPvsT Daily=IRRAD_DIA TDaily=TEMP_DIA
New PVSystem.GD_252f00c53ed13f71b1bd3ef28d5161f6f7954041f5fad17138d2ed2f3df0756c_1 phases=1 bus1=node_423636781.1.4 conn=wye kv=0.1200 pf=1 pmpp=5.00 kva=5.00 irradiance=1 temperature=25 %cutin=20 %cutout=20 effcurve=MyEff P-TCurve=MyPvsT Daily=IRRAD_DIA TDaily=TEMP_DIA
New PVSystem.GD_252f00c53ed13f71b1bd3ef28d5161f6f7954041f5fad17138d2ed2f3df0756c_2 phases=1 bus1=node_423636781.2.4 conn=wye kv=0.1200 pf=1 pmpp=5.00 kva=5.00 irradiance=1 temperature=25 %cutin=20 %cutout=20 effcurve=MyEff P-TCurve=MyPvsT Daily=IRRAD_DIA TDaily=TEMP_DIA
New PVSystem.GD_d008007b5f6c4e8084ac8396720c05ee89d49b5a4d1bad9df2163c6530ba88d1_1 phases=1 bus1=node_419992607.1.4 conn=wye kv=0.1270 pf=1 pmpp=22.20 kva=22.20 irradiance=1 temperature=25 %cutin=20 %cutout=20 effcurve=MyEff P-TCurve=MyPvsT Daily=IRRAD_DIA TDaily=TEMP_DIA
New PVSystem.GD_d008007b5f6c4e8084ac8396720c05ee89d49b5a4d1bad9df2163c6530ba88d1_2 phases=1 bus1=node_419992607.2.4 conn=wye kv=0.1270 pf=1 pmpp=22.20 kva=22.20 irradiance=1 temperature=25 %cutin=20 %cutout=20 effcurve=MyEff P-TCurve=MyPvsT Daily=IRRAD_DIA TDaily=TEMP_DIA
New PVSystem.GD_d008007b5f6c4e8084ac8396720c05ee89d49b5a4d1bad9df2163c6530ba88d1_3 phases=1 bus1=node_419992607.3.4 conn=wye kv=0.1270 pf=1 pmpp=22.20 kva=22.20 irradiance=1 temperature=25 %cutin=20 %cutout=20 effcurve=MyEff P-TCurve=MyPvsT Daily=IRRAD_DIA TDaily=TEMP_DIA
New PVSystem.GD_dd7dd212ddce08e5a9bea3ea949fc25db0722b2c74104091e473c53b69ae3a78_1 phases=1 bus1=node_419994692.1.4 conn=wye kv=0.1270 pf=1 pmpp=9.06 kva=9.06 irradiance=1 temperature=25 %cutin=20 %cutout=20 effcurve=MyEff P-TCurve=MyPvsT Daily=IRRAD_DIA TDaily=TEMP_DIA
New PVSystem.GD_dd7dd212ddce08e5a9bea3ea949fc25db0722b2c74104091e473c53b69ae3a78_2 phases=1 bus1=node_419994692.2.4 conn=wye kv=0.1270 pf=1 pmpp=9.06 kva=9.06 irradiance=1 temperature=25 %cutin=20 %cutout=20 effcurve=MyEff P-TCurve=MyPvsT Daily=IRRAD_DIA TDaily=TEMP_DIA
New PVSystem.GD_dd7dd212ddce08e5a9bea3ea949fc25db0722b2c74104091e473c53b69ae3a78_3 phases=1 bus1=node_419994692.3.4 conn=wye kv=0.1270 pf=1 pmpp=9.06 kva=9.06 irradiance=1 temperature=25 %cutin=20 %cutout=20 effcurve=MyEff P-TCurve=MyPvsT Daily=IRRAD_DIA TDaily=TEMP_DIA
New PVSystem.GD_83e94b275a6572b1803ce82fab0d53b2aa202edeaa59eacf448f2d4e60b8dd03_1 phases=1 bus1=node_419993255.1.4 conn=wye kv=0.1270 pf=1 pmpp=7.44 kva=7.44 irradiance=1 temperature=25 %cutin=20 %cutout=20 effcurve=MyEff P-TCurve=MyPvsT Daily=IRRAD_DIA TDaily=TEMP_DIA
New PVSystem.GD_83e94b275a6572b1803ce82fab0d53b2aa202edeaa59eacf448f2d4e60b8dd03_2 phases=1 bus1=node_419993255.2.4 conn=wye kv=0.1270 pf=1 pmpp=7.44 kva=7.44 irradiance=1 temperature=25 %cutin=20 %cutout=20 effcurve=MyEff P-TCurve=MyPvsT Daily=IRRAD_DIA TDaily=TEMP_DIA
New PVSystem.GD_83e94b275a6572b1803ce82fab0d53b2aa202edeaa59eacf448f2d4e60b8dd03_3 phases=1 bus1=node_419993255.3.4 conn=wye kv=0.1270 pf=1 pmpp=7.44 kva=7.44 irradiance=1 temperature=25 %cutin=20 %cutout=20 effcurve=MyEff P-TCurve=MyPvsT Daily=IRRAD_DIA TDaily=TEMP_DIA
New PVSystem.GD_d14fc0e1d6a78ea3be9ba4ca3334db09fa7d74b44b0223338a73f31674b67289_1 phases=1 bus1=node_423164789.1.4 conn=wye kv=0.1270 pf=1 pmpp=0.49 kva=0.49 irradiance=1 temperature=25 %cutin=20 %cutout=20 effcurve=MyEff P-TCurve=MyPvsT Daily=IRRAD_DIA TDaily=TEMP_DIA
New PVSystem.GD_d14fc0e1d6a78ea3be9ba4ca3334db09fa7d74b44b0223338a73f31674b67289_2 phases=1 bus1=node_423164789.2.4 conn=wye kv=0.1270 pf=1 pmpp=0.49 kva=0.49 irradiance=1 temperature=25 %cutin=20 %cutout=20 effcurve=MyEff P-TCurve=MyPvsT Daily=IRRAD_DIA TDaily=TEMP_DIA
New PVSystem.GD_d14fc0e1d6a78ea3be9ba4ca3334db09fa7d74b44b0223338a73f31674b67289_3 phases=1 bus1=node_423164789.3.4 conn=wye kv=0.1270 pf=1 pmpp=0.49 kva=0.49 irradiance=1 temperature=25 %cutin=20 %cutout=20 effcurve=MyEff P-TCurve=MyPvsT Daily=IRRAD_DIA TDaily=TEMP_DIA
New PVSystem.GD_e2a06e0fe079a0322c5ca6fcf68d399e5cf9e6d855e328775e951f4103e05965_1 phases=1 bus1=node_418355803.1.4 conn=wye kv=0.1270 pf=1 pmpp=0.94 kva=0.94 irradiance=1 temperature=25 %cutin=20 %cutout=20 effcurve=MyEff P-TCurve=MyPvsT Daily=IRRAD_DIA TDaily=TEMP_DIA
New PVSystem.GD_e2a06e0fe079a0322c5ca6fcf68d399e5cf9e6d855e328775e951f4103e05965_2 phases=1 bus1=node_418355803.2.4 conn=wye kv=0.1270 pf=1 pmpp=0.94 kva=0.94 irradiance=1 temperature=25 %cutin=20 %cutout=20 effcurve=MyEff P-TCurve=MyPvsT Daily=IRRAD_DIA TDaily=TEMP_DIA
New PVSystem.GD_e2a06e0fe079a0322c5ca6fcf68d399e5cf9e6d855e328775e951f4103e05965_3 phases=1 bus1=node_418355803.3.4 conn=wye kv=0.1270 pf=1 pmpp=0.94 kva=0.94 irradiance=1 temperature=25 %cutin=20 %cutout=20 effcurve=MyEff P-TCurve=MyPvsT Daily=IRRAD_DIA TDaily=TEMP_DIA
New PVSystem.GD_3028c2bbca78ea5bc33ccd2639010e56c1114597dbb742056ab44b5d8accfab2_1 phases=1 bus1=node_418354675.1.4 conn=wye kv=0.1270 pf=1 pmpp=2.51 kva=2.51 irradiance=1 temperature=25 %cutin=20 %cutout=20 effcurve=MyEff P-TCurve=MyPvsT Daily=IRRAD_DIA TDaily=TEMP_DIA
New PVSystem.GD_3028c2bbca78ea5bc33ccd2639010e56c1114597dbb742056ab44b5d8accfab2_2 phases=1 bus1=node_418354675.2.4 conn=wye kv=0.1270 pf=1 pmpp=2.51 kva=2.51 irradiance=1 temperature=25 %cutin=20 %cutout=20 effcurve=MyEff P-TCurve=MyPvsT Daily=IRRAD_DIA TDaily=TEMP_DIA
New PVSystem.GD_3028c2bbca78ea5bc33ccd2639010e56c1114597dbb742056ab44b5d8accfab2_3 phases=1 bus1=node_418354675.3.4 conn=wye kv=0.1270 pf=1 pmpp=2.51 kva=2.51 irradiance=1 temperature=25 %cutin=20 %cutout=20 effcurve=MyEff P-TCurve=MyPvsT Daily=IRRAD_DIA TDaily=TEMP_DIA
New PVSystem.GD_46889896877b6bb33f0528f5810c9c925031fc7c387717c08936053c938a55e2_1 phases=1 bus1=node_1129167516.1.4 conn=wye kv=0.1270 pf=1 pmpp=9.96 kva=9.96 irradiance=1 temperature=25 %cutin=20 %cutout=20 effcurve=MyEff P-TCurve=MyPvsT Daily=IRRAD_DIA TDaily=TEMP_DIA
New PVSystem.GD_46889896877b6bb33f0528f5810c9c925031fc7c387717c08936053c938a55e2_2 phases=1 bus1=node_1129167516.2.4 conn=wye kv=0.1270 pf=1 pmpp=9.96 kva=9.96 irradiance=1 temperature=25 %cutin=20 %cutout=20 effcurve=MyEff P-TCurve=MyPvsT Daily=IRRAD_DIA TDaily=TEMP_DIA
New PVSystem.GD_46889896877b6bb33f0528f5810c9c925031fc7c387717c08936053c938a55e2_3 phases=1 bus1=node_1129167516.3.4 conn=wye kv=0.1270 pf=1 pmpp=9.96 kva=9.96 irradiance=1 temperature=25 %cutin=20 %cutout=20 effcurve=MyEff P-TCurve=MyPvsT Daily=IRRAD_DIA TDaily=TEMP_DIA
New PVSystem.GD_cc58b5dcf272e0df330d1b95c739849c5d4c26544a148a858c453acdd9ab8cf2_1 phases=1 bus1=node_423714533.1.4 conn=wye kv=0.1200 pf=1 pmpp=0.38 kva=0.38 irradiance=1 temperature=25 %cutin=20 %cutout=20 effcurve=MyEff P-TCurve=MyPvsT Daily=IRRAD_DIA TDaily=TEMP_DIA
New PVSystem.GD_cc58b5dcf272e0df330d1b95c739849c5d4c26544a148a858c453acdd9ab8cf2_2 phases=1 bus1=node_423714533.2.4 conn=wye kv=0.1200 pf=1 pmpp=0.38 kva=0.38 irradiance=1 temperature=25 %cutin=20 %cutout=20 effcurve=MyEff P-TCurve=MyPvsT Daily=IRRAD_DIA TDaily=TEMP_DIA
New PVSystem.GD_1911b45cc5755d0a4b43cba7cb78918e7548ed2ca7c3e5dc26182a08e7fc3313_1 phases=1 bus1=node_1213038299.1.4 conn=wye kv=0.1200 pf=1 pmpp=1.24 kva=1.24 irradiance=1 temperature=25 %cutin=20 %cutout=20 effcurve=MyEff P-TCurve=MyPvsT Daily=IRRAD_DIA TDaily=TEMP_DIA
New PVSystem.GD_1911b45cc5755d0a4b43cba7cb78918e7548ed2ca7c3e5dc26182a08e7fc3313_2 phases=1 bus1=node_1213038299.2.4 conn=wye kv=0.1200 pf=1 pmpp=1.24 kva=1.24 irradiance=1 temperature=25 %cutin=20 %cutout=20 effcurve=MyEff P-TCurve=MyPvsT Daily=IRRAD_DIA TDaily=TEMP_DIA
New PVSystem.GD_e47e75ecebbf3d83f41f4531be191521384f93b58a772b34809091de3e914c80_1 phases=1 bus1=node_1698371558.1.4 conn=wye kv=0.1270 pf=1 pmpp=9.22 kva=9.22 irradiance=1 temperature=25 %cutin=20 %cutout=20 effcurve=MyEff P-TCurve=MyPvsT Daily=IRRAD_DIA TDaily=TEMP_DIA
New PVSystem.GD_e47e75ecebbf3d83f41f4531be191521384f93b58a772b34809091de3e914c80_2 phases=1 bus1=node_1698371558.2.4 conn=wye kv=0.1270 pf=1 pmpp=9.22 kva=9.22 irradiance=1 temperature=25 %cutin=20 %cutout=20 effcurve=MyEff P-TCurve=MyPvsT Daily=IRRAD_DIA TDaily=TEMP_DIA
New PVSystem.GD_e47e75ecebbf3d83f41f4531be191521384f93b58a772b34809091de3e914c80_3 phases=1 bus1=node_1698371558.3.4 conn=wye kv=0.1270 pf=1 pmpp=9.22 kva=9.22 irradiance=1 temperature=25 %cutin=20 %cutout=20 effcurve=MyEff P-TCurve=MyPvsT Daily=IRRAD_DIA TDaily=TEMP_DIA
New PVSystem.GD_6a4b7294376546d235eee929a231601cfb2d1496da769bb0a450df2c853e8692_1 phases=1 bus1=node_418162801.1.4 conn=wye kv=0.1270 pf=1 pmpp=1.05 kva=1.05 irradiance=1 temperature=25 %cutin=20 %cutout=20 effcurve=MyEff P-TCurve=MyPvsT Daily=IRRAD_DIA TDaily=TEMP_DIA
New PVSystem.GD_6a4b7294376546d235eee929a231601cfb2d1496da769bb0a450df2c853e8692_2 phases=1 bus1=node_418162801.2.4 conn=wye kv=0.1270 pf=1 pmpp=1.05 kva=1.05 irradiance=1 temperature=25 %cutin=20 %cutout=20 effcurve=MyEff P-TCurve=MyPvsT Daily=IRRAD_DIA TDaily=TEMP_DIA
New PVSystem.GD_6a4b7294376546d235eee929a231601cfb2d1496da769bb0a450df2c853e8692_3 phases=1 bus1=node_418162801.3.4 conn=wye kv=0.1270 pf=1 pmpp=1.05 kva=1.05 irradiance=1 temperature=25 %cutin=20 %cutout=20 effcurve=MyEff P-TCurve=MyPvsT Daily=IRRAD_DIA TDaily=TEMP_DIA
New PVSystem.GD_044bb51c26562fa79b1f3f779cd1f7198fcdf2c30e44009dab26b6483460f281_1 phases=1 bus1=node_2254491764.1.4 conn=wye kv=0.1270 pf=1 pmpp=4.32 kva=4.32 irradiance=1 temperature=25 %cutin=20 %cutout=20 effcurve=MyEff P-TCurve=MyPvsT Daily=IRRAD_DIA TDaily=TEMP_DIA
New PVSystem.GD_044bb51c26562fa79b1f3f779cd1f7198fcdf2c30e44009dab26b6483460f281_2 phases=1 bus1=node_2254491764.2.4 conn=wye kv=0.1270 pf=1 pmpp=4.32 kva=4.32 irradiance=1 temperature=25 %cutin=20 %cutout=20 effcurve=MyEff P-TCurve=MyPvsT Daily=IRRAD_DIA TDaily=TEMP_DIA
New PVSystem.GD_044bb51c26562fa79b1f3f779cd1f7198fcdf2c30e44009dab26b6483460f281_3 phases=1 bus1=node_2254491764.3.4 conn=wye kv=0.1270 pf=1 pmpp=4.32 kva=4.32 irradiance=1 temperature=25 %cutin=20 %cutout=20 effcurve=MyEff P-TCurve=MyPvsT Daily=IRRAD_DIA TDaily=TEMP_DIA
New PVSystem.GD_ad9cdab6638389c893b09a214bbfda3137e4ea463c459d5ce541581884acff23_1 phases=1 bus1=node_2254491764.1.4 conn=wye kv=0.1270 pf=1 pmpp=3.30 kva=3.30 irradiance=1 temperature=25 %cutin=20 %cutout=20 effcurve=MyEff P-TCurve=MyPvsT Daily=IRRAD_DIA TDaily=TEMP_DIA
New PVSystem.GD_ad9cdab6638389c893b09a214bbfda3137e4ea463c459d5ce541581884acff23_2 phases=1 bus1=node_2254491764.2.4 conn=wye kv=0.1270 pf=1 pmpp=3.30 kva=3.30 irradiance=1 temperature=25 %cutin=20 %cutout=20 effcurve=MyEff P-TCurve=MyPvsT Daily=IRRAD_DIA TDaily=TEMP_DIA
New PVSystem.GD_ad9cdab6638389c893b09a214bbfda3137e4ea463c459d5ce541581884acff23_3 phases=1 bus1=node_2254491764.3.4 conn=wye kv=0.1270 pf=1 pmpp=3.30 kva=3.30 irradiance=1 temperature=25 %cutin=20 %cutout=20 effcurve=MyEff P-TCurve=MyPvsT Daily=IRRAD_DIA TDaily=TEMP_DIA
New PVSystem.GD_12b8a74e6f5c8462e3f353a815f0cf233bb4f4b433444df777c718bdc04c71aa_1 phases=1 bus1=node_2024402450.1.4 conn=wye kv=0.1270 pf=1 pmpp=15.35 kva=15.35 irradiance=1 temperature=25 %cutin=20 %cutout=20 effcurve=MyEff P-TCurve=MyPvsT Daily=IRRAD_DIA TDaily=TEMP_DIA
New PVSystem.GD_12b8a74e6f5c8462e3f353a815f0cf233bb4f4b433444df777c718bdc04c71aa_2 phases=1 bus1=node_2024402450.2.4 conn=wye kv=0.1270 pf=1 pmpp=15.35 kva=15.35 irradiance=1 temperature=25 %cutin=20 %cutout=20 effcurve=MyEff P-TCurve=MyPvsT Daily=IRRAD_DIA TDaily=TEMP_DIA
New PVSystem.GD_12b8a74e6f5c8462e3f353a815f0cf233bb4f4b433444df777c718bdc04c71aa_3 phases=1 bus1=node_2024402450.3.4 conn=wye kv=0.1270 pf=1 pmpp=15.35 kva=15.35 irradiance=1 temperature=25 %cutin=20 %cutout=20 effcurve=MyEff P-TCurve=MyPvsT Daily=IRRAD_DIA TDaily=TEMP_DIA
New PVSystem.GD_ecc1ce60c1e3c01173574d007ff0172ed1008997d72871a9f5bb023a585c5f57_1 phases=1 bus1=node_418163065.1.4 conn=wye kv=0.1270 pf=1 pmpp=0.20 kva=0.20 irradiance=1 temperature=25 %cutin=20 %cutout=20 effcurve=MyEff P-TCurve=MyPvsT Daily=IRRAD_DIA TDaily=TEMP_DIA
New PVSystem.GD_ecc1ce60c1e3c01173574d007ff0172ed1008997d72871a9f5bb023a585c5f57_2 phases=1 bus1=node_418163065.2.4 conn=wye kv=0.1270 pf=1 pmpp=0.20 kva=0.20 irradiance=1 temperature=25 %cutin=20 %cutout=20 effcurve=MyEff P-TCurve=MyPvsT Daily=IRRAD_DIA TDaily=TEMP_DIA
New PVSystem.GD_ecc1ce60c1e3c01173574d007ff0172ed1008997d72871a9f5bb023a585c5f57_3 phases=1 bus1=node_418163065.3.4 conn=wye kv=0.1270 pf=1 pmpp=0.20 kva=0.20 irradiance=1 temperature=25 %cutin=20 %cutout=20 effcurve=MyEff P-TCurve=MyPvsT Daily=IRRAD_DIA TDaily=TEMP_DIA
New PVSystem.GD_875c492f6bfc4e087de24290565864ee67b65b7da505c358a0be9e26349bb87f_1 phases=1 bus1=node_419994689.1.4 conn=wye kv=0.1270 pf=1 pmpp=8.28 kva=8.28 irradiance=1 temperature=25 %cutin=20 %cutout=20 effcurve=MyEff P-TCurve=MyPvsT Daily=IRRAD_DIA TDaily=TEMP_DIA
New PVSystem.GD_875c492f6bfc4e087de24290565864ee67b65b7da505c358a0be9e26349bb87f_2 phases=1 bus1=node_419994689.2.4 conn=wye kv=0.1270 pf=1 pmpp=8.28 kva=8.28 irradiance=1 temperature=25 %cutin=20 %cutout=20 effcurve=MyEff P-TCurve=MyPvsT Daily=IRRAD_DIA TDaily=TEMP_DIA
New PVSystem.GD_875c492f6bfc4e087de24290565864ee67b65b7da505c358a0be9e26349bb87f_3 phases=1 bus1=node_419994689.3.4 conn=wye kv=0.1270 pf=1 pmpp=8.28 kva=8.28 irradiance=1 temperature=25 %cutin=20 %cutout=20 effcurve=MyEff P-TCurve=MyPvsT Daily=IRRAD_DIA TDaily=TEMP_DIA
New PVSystem.GD_e55d4000bd79373428a96658fa3f23923cb20c6a06f556f05b33e37786b53f6c_1 phases=1 bus1=node_418157712.1.4 conn=wye kv=0.1270 pf=1 pmpp=1.32 kva=1.32 irradiance=1 temperature=25 %cutin=20 %cutout=20 effcurve=MyEff P-TCurve=MyPvsT Daily=IRRAD_DIA TDaily=TEMP_DIA
New PVSystem.GD_e55d4000bd79373428a96658fa3f23923cb20c6a06f556f05b33e37786b53f6c_2 phases=1 bus1=node_418157712.2.4 conn=wye kv=0.1270 pf=1 pmpp=1.32 kva=1.32 irradiance=1 temperature=25 %cutin=20 %cutout=20 effcurve=MyEff P-TCurve=MyPvsT Daily=IRRAD_DIA TDaily=TEMP_DIA
New PVSystem.GD_e55d4000bd79373428a96658fa3f23923cb20c6a06f556f05b33e37786b53f6c_3 phases=1 bus1=node_418157712.3.4 conn=wye kv=0.1270 pf=1 pmpp=1.32 kva=1.32 irradiance=1 temperature=25 %cutin=20 %cutout=20 effcurve=MyEff P-TCurve=MyPvsT Daily=IRRAD_DIA TDaily=TEMP_DIA
